10
 10. Vibration mode, 1069.15 cm-1, Ag (ground)
N   1.395248 -0.000000  0.000000  0.35140  0.00000  0.00000
C   0.691714  1.121767  0.000000  0.21770  0.33350 -0.00000
C   0.691714 -1.121767  0.000000  0.21770 -0.33350 -0.00000
N  -1.395248  0.000000  0.000000 -0.35140  0.00000  0.00000
C  -0.691714 -1.121767  0.000000 -0.21770 -0.33350  0.00000
C  -0.691714  1.121767  0.000000 -0.21770  0.33350 -0.00000
H   1.242824  2.046926 -0.000000  0.16610  0.04500 -0.00000
H   1.242824 -2.046926  0.000000  0.16610 -0.04500  0.00000
H  -1.242824 -2.046926 -0.000000 -0.16610 -0.04500 -0.00000
H  -1.242824  2.046926  0.000000 -0.16610  0.04500  0.00000
10
 12. Vibration mode, 1052.15 cm-1, Ag
N  -0.000000 -1.361099  0.000000 -0.00000  0.35700  0.00000
C   1.152243 -0.691606  0.000000 -0.34600  0.19710  0.00000
C  -1.152243 -0.691606  0.000000  0.34600  0.19710  0.00000
N   0.000000  1.361099  0.000000 -0.00000 -0.35700 -0.00000
C  -1.152243  0.691606  0.000000  0.34600 -0.19710  0.00000
C   1.152243  0.691606  0.000000 -0.34600 -0.19710  0.00000
H   2.092329 -1.213670 -0.000000 -0.05700  0.15530 -0.00000
H  -2.092329 -1.213670  0.000000  0.05700  0.15530 -0.00000
H  -2.092329  1.213670 -0.000000  0.05700 -0.15530 -0.00000
H   2.092329  1.213670  0.000000 -0.05700 -0.15530 -0.00000
