13
XX. Vibration mode, 3236.83 cm-1, a1
C    -0.00000000  -0.00000000  -1.14803700   0.00000000   0.00000000   0.00670000
C     1.21231000  -0.00000000  -1.86989700   0.05010000   0.00000000   0.03550000
C     1.20980100  -0.00000000  -3.27231400   0.11460000   0.00000000  -0.05690000
C     0.00000000  -0.00000000  -3.98609500   0.00000000   0.00000000  -0.22590000
C    -1.21231000  -0.00000000  -1.86989700  -0.05010000  -0.00000000   0.03550000
C    -1.20980100  -0.00000000  -3.27231400  -0.11460000  -0.00000000  -0.05690000
O    -0.00000000  -0.00000000   0.19823500  -0.00000000  -0.00000000  -0.00210000
SR   -0.00000000  -0.00000000   2.24444600   0.00000000   0.00000000   0.00010000
H     2.15500600  -0.00000000  -1.31239800  -0.16370000  -0.00000000  -0.09810000
H     2.16358400  -0.00000000  -3.81126600  -0.34630000   0.00000000   0.19300000
H     0.00000000  -0.00000000  -5.08028100  -0.00000000  -0.00000000   0.72200000
H    -2.15500600  -0.00000000  -1.31239800   0.16370000   0.00000000  -0.09810000
H    -2.16358400   0.00000000  -3.81126600   0.34630000   0.00000000   0.19300000
13
XX. Vibration mode, 3217.83 cm-1, a1
C    -0.00000000  -0.00000000  -1.14803700   0.00000000  -0.00000000   0.01590000
C     1.21231000  -0.00000000  -1.86989700   0.14200000   0.00000000   0.08260000
C     1.20980100  -0.00000000  -3.27231400   0.04600000   0.00000000  -0.03990000
C     0.00000000  -0.00000000  -3.98609500   0.00000000  -0.00000000   0.14960000
C    -1.21231000  -0.00000000  -1.86989700  -0.14200000  -0.00000000   0.08260000
C    -1.20980100  -0.00000000  -3.27231400  -0.04600000   0.00000000  -0.03990000
O    -0.00000000  -0.00000000   0.19823500  -0.00000000   0.00000000  -0.00400000
SR   -0.00000000  -0.00000000   2.24444600  -0.00000000   0.00000000   0.00010000
H     2.15500600  -0.00000000  -1.31239800  -0.46500000  -0.00000000  -0.27270000
H     2.16358400  -0.00000000  -3.81126600  -0.17000000   0.00000000   0.10010000
H     0.00000000  -0.00000000  -5.08028100  -0.00000000  -0.00000000  -0.50470000
H    -2.15500600  -0.00000000  -1.31239800   0.46500000  -0.00000000  -0.27270000
H    -2.16358400   0.00000000  -3.81126600   0.17000000   0.00000000   0.10010000
13
XX. Vibration mode, 3199.64 cm-1, a1
C    -0.00000000  -0.00000000  -1.14803700   0.00000000   0.00000000   0.00900000
C     1.21231000  -0.00000000  -1.86989700   0.09250000   0.00000000   0.04790000
C     1.20980100  -0.00000000  -3.27231400  -0.12950000   0.00000000   0.07150000
C     0.00000000  -0.00000000  -3.98609500  -0.00000000  -0.00000000  -0.10400000
C    -1.21231000  -0.00000000  -1.86989700  -0.09250000   0.00000000   0.04790000
C    -1.20980100  -0.00000000  -3.27231400   0.12950000  -0.00000000   0.07150000
O    -0.00000000  -0.00000000   0.19823500   0.00000000  -0.00000000  -0.00070000
SR   -0.00000000  -0.00000000   2.24444600  -0.00000000   0.00000000  -0.00010000
H     2.15500600  -0.00000000  -1.31239800  -0.31200000   0.00000000  -0.18130000
H     2.16358400  -0.00000000  -3.81126600   0.44580000   0.00000000  -0.25130000
H     0.00000000  -0.00000000  -5.08028100   0.00000000   0.00000000   0.37350000
H    -2.15500600  -0.00000000  -1.31239800   0.31200000   0.00000000  -0.18130000
H    -2.16358400   0.00000000  -3.81126600  -0.44580000   0.00000000  -0.25130000
13
XX. Vibration mode, 1683.50 cm-1, a1
C    -0.00000000  -0.00000000  -1.14803700  -0.00000000  -0.00000000   0.33410000
C     1.21231000  -0.00000000  -1.86989700   0.11400000   0.00000000  -0.43020000
C     1.20980100  -0.00000000  -3.27231400   0.11800000  -0.00000000   0.41090000
C     0.00000000  -0.00000000  -3.98609500   0.00000000   0.00000000  -0.20230000
C    -1.21231000  -0.00000000  -1.86989700  -0.11400000   0.00000000  -0.43020000
C    -1.20980100  -0.00000000  -3.27231400  -0.11800000   0.00000000   0.41090000
O    -0.00000000  -0.00000000   0.19823500  -0.00000000   0.00000000  -0.05060000
SR   -0.00000000  -0.00000000   2.24444600  -0.00000000   0.00000000  -0.00460000
H     2.15500600  -0.00000000  -1.31239800  -0.09900000  -0.00000000   0.09840000
H     2.16358400  -0.00000000  -3.81126600  -0.09500000   0.00000000  -0.10260000
H     0.00000000  -0.00000000  -5.08028100  -0.00000000  -0.00000000  -0.06760000
H    -2.15500600  -0.00000000  -1.31239800   0.09900000  -0.00000000   0.09840000
H    -2.16358400   0.00000000  -3.81126600   0.09500000  -0.00000000  -0.10260000
13
XX. Vibration mode, 1548.11 cm-1, a1
C    -0.00000000  -0.00000000  -1.14803700  -0.00000000   0.00000000   0.46980000
C     1.21231000  -0.00000000  -1.86989700   0.22060000  -0.00000000  -0.14610000
C     1.20980100  -0.00000000  -3.27231400  -0.22960000  -0.00000000  -0.26410000
C     0.00000000  -0.00000000  -3.98609500   0.00000000   0.00000000   0.24760000
C    -1.21231000  -0.00000000  -1.86989700  -0.22060000   0.00000000  -0.14610000
C    -1.20980100  -0.00000000  -3.27231400   0.22960000   0.00000000  -0.26410000
O    -0.00000000  -0.00000000   0.19823500  -0.00000000   0.00000000  -0.18260000
SR   -0.00000000  -0.00000000   2.24444600   0.00000000  -0.00000000  -0.00030000
H     2.15500600  -0.00000000  -1.31239800  -0.08120000   0.00000000   0.23320000
H     2.16358400  -0.00000000  -3.81126600   0.12050000   0.00000000   0.26550000
H     0.00000000  -0.00000000  -5.08028100  -0.00000000  -0.00000000   0.08770000
H    -2.15500600  -0.00000000  -1.31239800   0.08120000  -0.00000000   0.23320000
H    -2.16358400   0.00000000  -3.81126600  -0.12050000  -0.00000000   0.26550000
13
XX. Vibration mode, 1341.24 cm-1, a1
C    -0.00000000  -0.00000000  -1.14803700  -0.00000000   0.00000000   0.60770000
C     1.21231000  -0.00000000  -1.86989700  -0.10440000  -0.00000000   0.20390000
C     1.20980100  -0.00000000  -3.27231400   0.17270000  -0.00000000  -0.10090000
C     0.00000000  -0.00000000  -3.98609500   0.00000000  -0.00000000  -0.04270000
C    -1.21231000  -0.00000000  -1.86989700   0.10440000   0.00000000   0.20390000
C    -1.20980100  -0.00000000  -3.27231400  -0.17270000  -0.00000000  -0.10090000
O    -0.00000000  -0.00000000   0.19823500   0.00000000  -0.00000000  -0.49840000
SR   -0.00000000  -0.00000000   2.24444600   0.00000000  -0.00000000   0.01500000
H     2.15500600  -0.00000000  -1.31239800   0.11340000   0.00000000  -0.16500000
H     2.16358400  -0.00000000  -3.81126600  -0.05620000   0.00000000  -0.23280000
H     0.00000000  -0.00000000  -5.08028100  -0.00000000   0.00000000  -0.01950000
H    -2.15500600  -0.00000000  -1.31239800  -0.11340000  -0.00000000  -0.16500000
H    -2.16358400   0.00000000  -3.81126600   0.05620000   0.00000000  -0.23280000
13
XX. Vibration mode, 1183.39 cm-1, a1
C    -0.00000000  -0.00000000  -1.14803700   0.00000000   0.00000000   0.04390000
C     1.21231000  -0.00000000  -1.86989700   0.04510000  -0.00000000  -0.11490000
C     1.20980100  -0.00000000  -3.27231400   0.14970000  -0.00000000   0.11830000
C     0.00000000  -0.00000000  -3.98609500  -0.00000000   0.00000000   0.01140000
C    -1.21231000  -0.00000000  -1.86989700  -0.04510000   0.00000000  -0.11490000
C    -1.20980100  -0.00000000  -3.27231400  -0.14970000  -0.00000000   0.11830000
O    -0.00000000  -0.00000000   0.19823500  -0.00000000   0.00000000  -0.05690000
SR   -0.00000000  -0.00000000   2.24444600  -0.00000000  -0.00000000   0.00330000
H     2.15500600  -0.00000000  -1.31239800   0.23450000   0.00000000  -0.40960000
H     2.16358400  -0.00000000  -3.81126600   0.25090000   0.00000000   0.40000000
H     0.00000000  -0.00000000  -5.08028100  -0.00000000  -0.00000000   0.00100000
H    -2.15500600  -0.00000000  -1.31239800  -0.23450000  -0.00000000  -0.40960000
H    -2.16358400   0.00000000  -3.81126600  -0.25090000   0.00000000   0.40000000
13
XX. Vibration mode, 1052.43 cm-1, a1
C    -0.00000000  -0.00000000  -1.14803700   0.00000000   0.00000000   0.00640000
C     1.21231000  -0.00000000  -1.86989700   0.07650000  -0.00000000  -0.16000000
C     1.20980100  -0.00000000  -3.27231400  -0.37240000  -0.00000000   0.04610000
C     0.00000000  -0.00000000  -3.98609500   0.00000000  -0.00000000   0.42800000
C    -1.21231000  -0.00000000  -1.86989700  -0.07650000  -0.00000000  -0.16000000
C    -1.20980100  -0.00000000  -3.27231400   0.37240000   0.00000000   0.04610000
O    -0.00000000  -0.00000000   0.19823500  -0.00000000  -0.00000000   0.05390000
SR   -0.00000000  -0.00000000   2.24444600   0.00000000   0.00000000  -0.00420000
H     2.15500600  -0.00000000  -1.31239800   0.17450000   0.00000000  -0.31080000
H     2.16358400  -0.00000000  -3.81126600  -0.23990000   0.00000000  -0.20180000
H     0.00000000  -0.00000000  -5.08028100   0.00000000   0.00000000   0.13710000
H    -2.15500600  -0.00000000  -1.31239800  -0.17450000   0.00000000  -0.31080000
H    -2.16358400   0.00000000  -3.81126600   0.23990000  -0.00000000  -0.20180000
13
XX. Vibration mode, 1014.86 cm-1, a1
C    -0.00000000  -0.00000000  -1.14803700  -0.00000000   0.00000000   0.03450000
C     1.21231000  -0.00000000  -1.86989700  -0.51360000   0.00000000  -0.23080000
C     1.20980100  -0.00000000  -3.27231400   0.14320000  -0.00000000  -0.05360000
C     0.00000000  -0.00000000  -3.98609500   0.00000000   0.00000000   0.46530000
C    -1.21231000  -0.00000000  -1.86989700   0.51360000   0.00000000  -0.23080000
C    -1.20980100  -0.00000000  -3.27231400  -0.14320000  -0.00000000  -0.05360000
O    -0.00000000  -0.00000000   0.19823500  -0.00000000  -0.00000000   0.02170000
SR   -0.00000000  -0.00000000   2.24444600  -0.00000000   0.00000000  -0.00350000
H     2.15500600  -0.00000000  -1.31239800  -0.19320000  -0.00000000  -0.00100000
H     2.16358400  -0.00000000  -3.81126600   0.05560000   0.00000000   0.02400000
H     0.00000000  -0.00000000  -5.08028100   0.00000000  -0.00000000   0.13800000
H    -2.15500600  -0.00000000  -1.31239800   0.19320000  -0.00000000  -0.00100000
H    -2.16358400   0.00000000  -3.81126600  -0.05560000   0.00000000   0.02400000
13
XX. Vibration mode, 888.20 cm-1, a1
C    -0.00000000  -0.00000000  -1.14803700   0.00000000  -0.00000000   0.18380000
C     1.21231000  -0.00000000  -1.86989700   0.22000000   0.00000000  -0.09080000
C     1.20980100  -0.00000000  -3.27231400   0.33900000   0.00000000  -0.25900000
C     0.00000000  -0.00000000  -3.98609500  -0.00000000  -0.00000000   0.15060000
C    -1.21231000  -0.00000000  -1.86989700  -0.22000000  -0.00000000  -0.09080000
C    -1.20980100  -0.00000000  -3.27231400  -0.33900000  -0.00000000  -0.25900000
O    -0.00000000  -0.00000000   0.19823500   0.00000000   0.00000000   0.60820000
SR   -0.00000000  -0.00000000   2.24444600  -0.00000000  -0.00000000  -0.08030000
H     2.15500600  -0.00000000  -1.31239800   0.08100000  -0.00000000  -0.04140000
H     2.16358400  -0.00000000  -3.81126600   0.03900000  -0.00000000  -0.18460000
H     0.00000000  -0.00000000  -5.08028100   0.00000000   0.00000000   0.03920000
H    -2.15500600  -0.00000000  -1.31239800  -0.08100000   0.00000000  -0.04140000
H    -2.16358400   0.00000000  -3.81126600  -0.03900000   0.00000000  -0.18460000
13
XX. Vibration mode, 614.30 cm-1, a1
C    -0.00000000  -0.00000000  -1.14803700   0.00000000  -0.00000000   0.41460000
C     1.21231000  -0.00000000  -1.86989700  -0.27250000   0.00000000   0.02310000
C     1.20980100  -0.00000000  -3.27231400  -0.27210000  -0.00000000  -0.04460000
C     0.00000000  -0.00000000  -3.98609500  -0.00000000   0.00000000  -0.45330000
C    -1.21231000  -0.00000000  -1.86989700   0.27250000   0.00000000   0.02310000
C    -1.20980100  -0.00000000  -3.27231400   0.27210000  -0.00000000  -0.04460000
O    -0.00000000  -0.00000000   0.19823500   0.00000000  -0.00000000   0.49010000
SR   -0.00000000  -0.00000000   2.24444600   0.00000000  -0.00000000  -0.16210000
H     2.15500600  -0.00000000  -1.31239800  -0.01360000   0.00000000  -0.10170000
H     2.16358400  -0.00000000  -3.81126600  -0.02080000  -0.00000000   0.08860000
H     0.00000000  -0.00000000  -5.08028100   0.00000000   0.00000000  -0.13040000
H    -2.15500600  -0.00000000  -1.31239800   0.01360000   0.00000000  -0.10170000
H    -2.16358400   0.00000000  -3.81126600   0.02080000  -0.00000000   0.08860000
13
XX. Vibration mode, 245.44 cm-1, a1
C    -0.00000000  -0.00000000  -1.14803700  -0.00000000   0.00000000   0.15140000
C     1.21231000  -0.00000000  -1.86989700   0.03740000  -0.00000000   0.27280000
C     1.20980100  -0.00000000  -3.27231400   0.02970000  -0.00000000   0.29490000
C     0.00000000  -0.00000000  -3.98609500  -0.00000000   0.00000000   0.34270000
C    -1.21231000  -0.00000000  -1.86989700  -0.03740000  -0.00000000   0.27280000
C    -1.20980100  -0.00000000  -3.27231400  -0.02970000  -0.00000000   0.29490000
O    -0.00000000  -0.00000000   0.19823500  -0.00000000   0.00000000   0.10280000
SR   -0.00000000  -0.00000000   2.24444600  -0.00000000  -0.00000000  -0.69370000
H     2.15500600  -0.00000000  -1.31239800  -0.00200000  -0.00000000   0.09920000
H     2.16358400  -0.00000000  -3.81126600   0.00190000  -0.00000000   0.07430000
H     0.00000000  -0.00000000  -5.08028100   0.00000000   0.00000000   0.09940000
H    -2.15500600  -0.00000000  -1.31239800   0.00200000  -0.00000000   0.09920000
H    -2.16358400   0.00000000  -3.81126600  -0.00190000   0.00000000   0.07430000
13
XX. Vibration mode, 984.85 cm-1, a2
C    -0.00000000  -0.00000000  -1.14803700  -0.00000000   0.00000000   0.00000000
C     1.21231000  -0.00000000  -1.86989700   0.00000000   0.22360000   0.00000000
C     1.20980100  -0.00000000  -3.27231400   0.00000000  -0.29200000  -0.00000000
C     0.00000000  -0.00000000  -3.98609500  -0.00000000   0.00000000  -0.00000000
C    -1.21231000  -0.00000000  -1.86989700  -0.00000000  -0.22360000  -0.00000000
C    -1.20980100  -0.00000000  -3.27231400  -0.00000000   0.29200000  -0.00000000
O    -0.00000000  -0.00000000   0.19823500  -0.00000000  -0.00000000   0.00000000
SR   -0.00000000  -0.00000000   2.24444600  -0.00000000   0.00000000  -0.00000000
H     2.15500600  -0.00000000  -1.31239800  -0.00000000  -0.35730000   0.00000000
H     2.16358400  -0.00000000  -3.81126600  -0.00000000   0.48700000  -0.00000000
H     0.00000000  -0.00000000  -5.08028100  -0.00000000  -0.00000000  -0.00000000
H    -2.15500600  -0.00000000  -1.31239800  -0.00000000   0.35730000  -0.00000000
H    -2.16358400   0.00000000  -3.81126600  -0.00000000  -0.48700000   0.00000000
13
XX. Vibration mode, 851.48 cm-1, a2
C    -0.00000000  -0.00000000  -1.14803700  -0.00000000  -0.00000000  -0.00000000
C     1.21231000  -0.00000000  -1.86989700  -0.00000000   0.25800000   0.00000000
C     1.20980100  -0.00000000  -3.27231400  -0.00000000   0.19590000   0.00000000
C     0.00000000  -0.00000000  -3.98609500   0.00000000  -0.00000000  -0.00000000
C    -1.21231000  -0.00000000  -1.86989700   0.00000000  -0.25800000   0.00000000
C    -1.20980100  -0.00000000  -3.27231400   0.00000000  -0.19590000   0.00000000
O    -0.00000000  -0.00000000   0.19823500   0.00000000   0.00000000  -0.00000000
SR   -0.00000000  -0.00000000   2.24444600   0.00000000   0.00000000   0.00000000
H     2.15500600  -0.00000000  -1.31239800  -0.00000000  -0.50630000  -0.00000000
H     2.16358400  -0.00000000  -3.81126600  -0.00000000  -0.37250000   0.00000000
H     0.00000000  -0.00000000  -5.08028100   0.00000000   0.00000000  -0.00000000
H    -2.15500600  -0.00000000  -1.31239800   0.00000000   0.50630000   0.00000000
H    -2.16358400   0.00000000  -3.81126600   0.00000000   0.37250000   0.00000000
13
XX. Vibration mode, 424.96 cm-1, a2
C    -0.00000000  -0.00000000  -1.14803700   0.00000000   0.00000000  -0.00000000
C     1.21231000  -0.00000000  -1.86989700   0.00000000   0.43100000  -0.00000000
C     1.20980100  -0.00000000  -3.27231400   0.00000000  -0.42370000  -0.00000000
C     0.00000000  -0.00000000  -3.98609500   0.00000000   0.00000000  -0.00000000
C    -1.21231000  -0.00000000  -1.86989700   0.00000000  -0.43100000  -0.00000000
C    -1.20980100  -0.00000000  -3.27231400   0.00000000   0.42370000  -0.00000000
O    -0.00000000  -0.00000000   0.19823500  -0.00000000   0.00000000   0.00000000
SR   -0.00000000  -0.00000000   2.24444600   0.00000000  -0.00000000   0.00000000
H     2.15500600  -0.00000000  -1.31239800   0.00000000   0.25210000  -0.00000000
H     2.16358400  -0.00000000  -3.81126600   0.00000000  -0.26690000  -0.00000000
H     0.00000000  -0.00000000  -5.08028100   0.00000000  -0.00000000  -0.00000000
H    -2.15500600  -0.00000000  -1.31239800   0.00000000  -0.25210000   0.00000000
H    -2.16358400   0.00000000  -3.81126600   0.00000000   0.26690000  -0.00000000
13
XX. Vibration mode, 986.27 cm-1, b1
C    -0.00000000  -0.00000000  -1.14803700  -0.00000000   0.05770000  -0.00000000
C     1.21231000  -0.00000000  -1.86989700   0.00000000   0.07780000   0.00000000
C     1.20980100  -0.00000000  -3.27231400  -0.00000000  -0.23360000  -0.00000000
C     0.00000000  -0.00000000  -3.98609500   0.00000000   0.23210000  -0.00000000
C    -1.21231000  -0.00000000  -1.86989700  -0.00000000   0.07780000   0.00000000
C    -1.20980100  -0.00000000  -3.27231400   0.00000000  -0.23360000   0.00000000
O    -0.00000000  -0.00000000   0.19823500  -0.00000000  -0.00310000   0.00000000
SR   -0.00000000  -0.00000000   2.24444600  -0.00000000   0.00060000   0.00000000
H     2.15500600  -0.00000000  -1.31239800   0.00000000  -0.22720000   0.00000000
H     2.16358400  -0.00000000  -3.81126600  -0.00000000   0.50100000  -0.00000000
H     0.00000000  -0.00000000  -5.08028100  -0.00000000  -0.46500000  -0.00000000
H    -2.15500600  -0.00000000  -1.31239800  -0.00000000  -0.22720000   0.00000000
H    -2.16358400   0.00000000  -3.81126600   0.00000000   0.50100000  -0.00000000
13
XX. Vibration mode, 907.53 cm-1, b1
C    -0.00000000  -0.00000000  -1.14803700  -0.00000000   0.24870000   0.00000000
C     1.21231000  -0.00000000  -1.86989700   0.00000000  -0.30000000   0.00000000
C     1.20980100  -0.00000000  -3.27231400   0.00000000   0.00930000  -0.00000000
C     0.00000000  -0.00000000  -3.98609500  -0.00000000   0.28250000   0.00000000
C    -1.21231000  -0.00000000  -1.86989700  -0.00000000  -0.30000000   0.00000000
C    -1.20980100  -0.00000000  -3.27231400  -0.00000000   0.00930000   0.00000000
O    -0.00000000  -0.00000000   0.19823500  -0.00000000  -0.06970000   0.00000000
SR   -0.00000000  -0.00000000   2.24444600  -0.00000000   0.00000000  -0.00000000
H     2.15500600  -0.00000000  -1.31239800  -0.00000000   0.47990000   0.00000000
H     2.16358400  -0.00000000  -3.81126600   0.00000000  -0.02470000  -0.00000000
H     0.00000000  -0.00000000  -5.08028100  -0.00000000  -0.45970000  -0.00000000
H    -2.15500600  -0.00000000  -1.31239800  -0.00000000   0.47990000  -0.00000000
H    -2.16358400   0.00000000  -3.81126600  -0.00000000  -0.02470000   0.00000000
13
XX. Vibration mode, 771.76 cm-1, b1
C    -0.00000000  -0.00000000  -1.14803700   0.00000000   0.44250000  -0.00000000
C     1.21231000  -0.00000000  -1.86989700   0.00000000  -0.14620000   0.00000000
C     1.20980100  -0.00000000  -3.27231400  -0.00000000  -0.11790000   0.00000000
C     0.00000000  -0.00000000  -3.98609500  -0.00000000  -0.24760000  -0.00000000
C    -1.21231000  -0.00000000  -1.86989700   0.00000000  -0.14620000  -0.00000000
C    -1.20980100  -0.00000000  -3.27231400  -0.00000000  -0.11790000  -0.00000000
O    -0.00000000  -0.00000000   0.19823500   0.00000000  -0.12400000  -0.00000000
SR   -0.00000000  -0.00000000   2.24444600  -0.00000000   0.00180000   0.00000000
H     2.15500600  -0.00000000  -1.31239800   0.00000000   0.16420000   0.00000000
H     2.16358400  -0.00000000  -3.81126600  -0.00000000   0.35090000   0.00000000
H     0.00000000  -0.00000000  -5.08028100  -0.00000000   0.59730000  -0.00000000
H    -2.15500600  -0.00000000  -1.31239800   0.00000000   0.16420000   0.00000000
H    -2.16358400   0.00000000  -3.81126600  -0.00000000   0.35090000  -0.00000000
13
XX. Vibration mode, 687.31 cm-1, b1
C    -0.00000000  -0.00000000  -1.14803700  -0.00000000   0.43490000   0.00000000
C     1.21231000  -0.00000000  -1.86989700  -0.00000000  -0.26970000  -0.00000000
C     1.20980100  -0.00000000  -3.27231400   0.00000000   0.37270000  -0.00000000
C     0.00000000  -0.00000000  -3.98609500   0.00000000  -0.32480000  -0.00000000
C    -1.21231000  -0.00000000  -1.86989700   0.00000000  -0.26970000   0.00000000
C    -1.20980100  -0.00000000  -3.27231400   0.00000000   0.37270000   0.00000000
O    -0.00000000  -0.00000000   0.19823500  -0.00000000  -0.04020000   0.00000000
SR   -0.00000000  -0.00000000   2.24444600   0.00000000  -0.00080000  -0.00000000
H     2.15500600  -0.00000000  -1.31239800  -0.00000000  -0.32370000  -0.00000000
H     2.16358400  -0.00000000  -3.81126600   0.00000000  -0.00480000   0.00000000
H     0.00000000  -0.00000000  -5.08028100  -0.00000000  -0.26650000  -0.00000000
H    -2.15500600  -0.00000000  -1.31239800  -0.00000000  -0.32370000  -0.00000000
H    -2.16358400   0.00000000  -3.81126600   0.00000000  -0.00480000   0.00000000
13
XX. Vibration mode, 532.99 cm-1, b1
C    -0.00000000  -0.00000000  -1.14803700  -0.00000000   0.56850000  -0.00000000
C     1.21231000  -0.00000000  -1.86989700  -0.00000000   0.07100000  -0.00000000
C     1.20980100  -0.00000000  -3.27231400   0.00000000  -0.27210000  -0.00000000
C     0.00000000  -0.00000000  -3.98609500   0.00000000   0.39440000   0.00000000
C    -1.21231000  -0.00000000  -1.86989700  -0.00000000   0.07100000   0.00000000
C    -1.20980100  -0.00000000  -3.27231400  -0.00000000  -0.27210000   0.00000000
O    -0.00000000  -0.00000000   0.19823500  -0.00000000  -0.27320000  -0.00000000
SR   -0.00000000  -0.00000000   2.24444600   0.00000000   0.01030000   0.00000000
H     2.15500600  -0.00000000  -1.31239800  -0.00000000  -0.20510000  -0.00000000
H     2.16358400  -0.00000000  -3.81126600   0.00000000  -0.31270000  -0.00000000
H     0.00000000  -0.00000000  -5.08028100   0.00000000   0.09300000   0.00000000
H    -2.15500600  -0.00000000  -1.31239800  -0.00000000  -0.20510000   0.00000000
H    -2.16358400   0.00000000  -3.81126600   0.00000000  -0.31270000  -0.00000000
13
XX. Vibration mode, 279.42 cm-1, b1
C    -0.00000000  -0.00000000  -1.14803700   0.00000000   0.08160000   0.00000000
C     1.21231000  -0.00000000  -1.86989700   0.00000000   0.37360000   0.00000000
C     1.20980100  -0.00000000  -3.27231400   0.00000000   0.06880000   0.00000000
C     0.00000000  -0.00000000  -3.98609500   0.00000000  -0.38090000   0.00000000
C    -1.21231000  -0.00000000  -1.86989700   0.00000000   0.37360000   0.00000000
C    -1.20980100  -0.00000000  -3.27231400   0.00000000   0.06880000   0.00000000
O    -0.00000000  -0.00000000   0.19823500   0.00000000  -0.66740000   0.00000000
SR   -0.00000000  -0.00000000   2.24444600  -0.00000000   0.05870000  -0.00000000
H     2.15500600  -0.00000000  -1.31239800  -0.00000000   0.15690000   0.00000000
H     2.16358400  -0.00000000  -3.81126600   0.00000000   0.01190000   0.00000000
H     0.00000000  -0.00000000  -5.08028100   0.00000000  -0.24740000   0.00000000
H    -2.15500600  -0.00000000  -1.31239800   0.00000000   0.15690000   0.00000000
H    -2.16358400   0.00000000  -3.81126600   0.00000000   0.01190000   0.00000000
13
XX. Vibration mode, 87.79 cm-1, b1
C    -0.00000000  -0.00000000  -1.14803700  -0.00000000   0.37220000   0.00000000
C     1.21231000  -0.00000000  -1.86989700  -0.00000000   0.24270000   0.00000000
C     1.20980100  -0.00000000  -3.27231400   0.00000000  -0.15830000   0.00000000
C     0.00000000  -0.00000000  -3.98609500   0.00000000  -0.38850000   0.00000000
C    -1.21231000  -0.00000000  -1.86989700  -0.00000000   0.24270000  -0.00000000
C    -1.20980100  -0.00000000  -3.27231400   0.00000000  -0.15830000  -0.00000000
O    -0.00000000  -0.00000000   0.19823500  -0.00000000   0.60750000   0.00000000
SR   -0.00000000  -0.00000000   2.24444600  -0.00000000  -0.29780000   0.00000000
H     2.15500600  -0.00000000  -1.31239800  -0.00000000   0.11120000   0.00000000
H     2.16358400  -0.00000000  -3.81126600   0.00000000  -0.08830000   0.00000000
H     0.00000000  -0.00000000  -5.08028100   0.00000000  -0.21090000   0.00000000
H    -2.15500600  -0.00000000  -1.31239800  -0.00000000   0.11120000  -0.00000000
H    -2.16358400   0.00000000  -3.81126600   0.00000000  -0.08830000  -0.00000000
13
XX. Vibration mode, 3222.12 cm-1, b2
C    -0.00000000  -0.00000000  -1.14803700   0.01190000   0.00000000  -0.00000000
C     1.21231000  -0.00000000  -1.86989700  -0.12190000  -0.00000000  -0.07870000
C     1.20980100  -0.00000000  -3.27231400  -0.12870000  -0.00000000   0.08030000
C     0.00000000  -0.00000000  -3.98609500   0.01310000  -0.00000000  -0.00000000
C    -1.21231000  -0.00000000  -1.86989700  -0.12190000   0.00000000   0.07870000
C    -1.20980100  -0.00000000  -3.27231400  -0.12870000   0.00000000  -0.08030000
O    -0.00000000  -0.00000000   0.19823500  -0.00030000  -0.00000000   0.00000000
SR   -0.00000000  -0.00000000   2.24444600  -0.00010000   0.00000000   0.00000000
H     2.15500600  -0.00000000  -1.31239800   0.40090000   0.00000000   0.23760000
H     2.16358400  -0.00000000  -3.81126600   0.42420000  -0.00000000  -0.24220000
H     0.00000000  -0.00000000  -5.08028100  -0.00430000   0.00000000   0.00000000
H    -2.15500600  -0.00000000  -1.31239800   0.40090000   0.00000000  -0.23760000
H    -2.16358400   0.00000000  -3.81126600   0.42420000  -0.00000000   0.24220000
13
XX. Vibration mode, 3204.58 cm-1, b2
C    -0.00000000  -0.00000000  -1.14803700   0.00820000   0.00000000  -0.00000000
C     1.21231000  -0.00000000  -1.86989700  -0.12730000   0.00000000  -0.06900000
C     1.20980100  -0.00000000  -3.27231400   0.12220000  -0.00000000  -0.06410000
C     0.00000000  -0.00000000  -3.98609500  -0.00770000   0.00000000   0.00000000
C    -1.21231000  -0.00000000  -1.86989700  -0.12730000  -0.00000000   0.06900000
C    -1.20980100  -0.00000000  -3.27231400   0.12220000  -0.00000000   0.06410000
O    -0.00000000  -0.00000000   0.19823500   0.00060000   0.00000000   0.00000000
SR   -0.00000000  -0.00000000   2.24444600  -0.00010000   0.00000000   0.00000000
H     2.15500600  -0.00000000  -1.31239800   0.42360000  -0.00000000   0.24750000
H     2.16358400  -0.00000000  -3.81126600  -0.40820000  -0.00000000   0.22930000
H     0.00000000  -0.00000000  -5.08028100   0.00190000  -0.00000000  -0.00000000
H    -2.15500600  -0.00000000  -1.31239800   0.42360000   0.00000000  -0.24750000
H    -2.16358400   0.00000000  -3.81126600  -0.40820000   0.00000000  -0.22930000
13
XX. Vibration mode, 1657.64 cm-1, b2
C    -0.00000000  -0.00000000  -1.14803700   0.45930000  -0.00000000   0.00000000
C     1.21231000  -0.00000000  -1.86989700  -0.28300000   0.00000000   0.13550000
C     1.20980100  -0.00000000  -3.27231400   0.30790000   0.00000000   0.12260000
C     0.00000000  -0.00000000  -3.98609500  -0.53750000  -0.00000000   0.00000000
C    -1.21231000  -0.00000000  -1.86989700  -0.28300000  -0.00000000  -0.13550000
C    -1.20980100  -0.00000000  -3.27231400   0.30790000   0.00000000  -0.12260000
O    -0.00000000  -0.00000000   0.19823500  -0.03060000   0.00000000  -0.00000000
SR   -0.00000000  -0.00000000   2.24444600   0.00070000   0.00000000   0.00000000
H     2.15500600  -0.00000000  -1.31239800  -0.00250000  -0.00000000  -0.10940000
H     2.16358400  -0.00000000  -3.81126600   0.01720000  -0.00000000  -0.11080000
H     0.00000000  -0.00000000  -5.08028100   0.18350000   0.00000000   0.00000000
H    -2.15500600  -0.00000000  -1.31239800  -0.00250000   0.00000000   0.10940000
H    -2.16358400   0.00000000  -3.81126600   0.01720000  -0.00000000   0.11080000
13
XX. Vibration mode, 1494.97 cm-1, b2
C    -0.00000000  -0.00000000  -1.14803700   0.32100000  -0.00000000  -0.00000000
C     1.21231000  -0.00000000  -1.86989700  -0.10200000  -0.00000000  -0.27220000
C     1.20980100  -0.00000000  -3.27231400  -0.01800000   0.00000000   0.36850000
C     0.00000000  -0.00000000  -3.98609500   0.29300000   0.00000000  -0.00000000
C    -1.21231000  -0.00000000  -1.86989700  -0.10200000  -0.00000000   0.27220000
C    -1.20980100  -0.00000000  -3.27231400  -0.01800000  -0.00000000  -0.36850000
O    -0.00000000  -0.00000000   0.19823500  -0.05900000  -0.00000000   0.00000000
SR   -0.00000000  -0.00000000   2.24444600   0.00100000   0.00000000   0.00000000
H     2.15500600  -0.00000000  -1.31239800  -0.13600000  -0.00000000   0.07600000
H     2.16358400  -0.00000000  -3.81126600  -0.19000000  -0.00000000  -0.19390000
H     0.00000000  -0.00000000  -5.08028100  -0.41100000  -0.00000000  -0.00000000
H    -2.15500600  -0.00000000  -1.31239800  -0.13600000   0.00000000  -0.07600000
H    -2.16358400   0.00000000  -3.81126600  -0.19000000  -0.00000000   0.19390000
13
XX. Vibration mode, 1341.24 cm-1, b2
C    -0.00000000  -0.00000000  -1.14803700   0.04970000   0.00000000   0.00000000
C     1.21231000  -0.00000000  -1.86989700   0.15150000   0.00000000  -0.35250000
C     1.20980100  -0.00000000  -3.27231400   0.00830000  -0.00000000   0.10940000
C     0.00000000  -0.00000000  -3.98609500  -0.34630000   0.00000000  -0.00000000
C    -1.21231000  -0.00000000  -1.86989700   0.15150000   0.00000000   0.35250000
C    -1.20980100  -0.00000000  -3.27231400   0.00830000  -0.00000000  -0.10940000
O    -0.00000000  -0.00000000   0.19823500  -0.05130000   0.00000000  -0.00000000
SR   -0.00000000  -0.00000000   2.24444600  -0.00010000   0.00000000   0.00000000
H     2.15500600  -0.00000000  -1.31239800  -0.21370000  -0.00000000   0.33440000
H     2.16358400  -0.00000000  -3.81126600   0.11540000   0.00000000   0.23560000
H     0.00000000  -0.00000000  -5.08028100   0.32230000  -0.00000000  -0.00000000
H    -2.15500600  -0.00000000  -1.31239800  -0.21370000  -0.00000000  -0.33440000
H    -2.16358400   0.00000000  -3.81126600   0.11540000   0.00000000  -0.23560000
13
XX. Vibration mode, 1297.08 cm-1, b2
C    -0.00000000  -0.00000000  -1.14803700   0.59700000   0.00000000  -0.00000000
C     1.21231000  -0.00000000  -1.86989700  -0.18600000   0.00000000   0.15620000
C     1.20980100  -0.00000000  -3.27231400  -0.20100000   0.00000000  -0.24340000
C     0.00000000  -0.00000000  -3.98609500   0.24600000   0.00000000   0.00000000
C    -1.21231000  -0.00000000  -1.86989700  -0.18600000  -0.00000000  -0.15620000
C    -1.20980100  -0.00000000  -3.27231400  -0.20100000   0.00000000   0.24340000
O    -0.00000000  -0.00000000   0.19823500  -0.03500000   0.00000000   0.00000000
SR   -0.00000000  -0.00000000   2.24444600   0.00100000   0.00000000   0.00000000
H     2.15500600  -0.00000000  -1.31239800  -0.12400000  -0.00000000   0.15800000
H     2.16358400  -0.00000000  -3.81126600   0.12700000   0.00000000   0.26260000
H     0.00000000  -0.00000000  -5.08028100  -0.10800000   0.00000000   0.00000000
H    -2.15500600  -0.00000000  -1.31239800  -0.12400000   0.00000000  -0.15800000
H    -2.16358400   0.00000000  -3.81126600   0.12700000  -0.00000000  -0.26260000
13
XX. Vibration mode, 1164.61 cm-1, b2
C    -0.00000000  -0.00000000  -1.14803700   0.07900000   0.00000000   0.00000000
C     1.21231000  -0.00000000  -1.86989700  -0.06040000  -0.00000000   0.00090000
C     1.20980100  -0.00000000  -3.27231400  -0.10730000  -0.00000000  -0.14370000
C     0.00000000  -0.00000000  -3.98609500   0.25270000  -0.00000000   0.00000000
C    -1.21231000  -0.00000000  -1.86989700  -0.06040000   0.00000000  -0.00090000
C    -1.20980100  -0.00000000  -3.27231400  -0.10730000  -0.00000000   0.14370000
O    -0.00000000  -0.00000000   0.19823500  -0.01060000  -0.00000000  -0.00000000
SR   -0.00000000  -0.00000000   2.24444600   0.00020000   0.00000000   0.00000000
H     2.15500600  -0.00000000  -1.31239800  -0.09960000   0.00000000   0.13800000
H     2.16358400  -0.00000000  -3.81126600  -0.21140000   0.00000000  -0.35740000
H     0.00000000  -0.00000000  -5.08028100   0.67480000   0.00000000   0.00000000
H    -2.15500600  -0.00000000  -1.31239800  -0.09960000  -0.00000000  -0.13800000
H    -2.16358400   0.00000000  -3.81126600  -0.21140000   0.00000000   0.35740000
13
XX. Vibration mode, 1094.06 cm-1, b2
C    -0.00000000  -0.00000000  -1.14803700   0.11200000   0.00000000   0.00000000
C     1.21231000  -0.00000000  -1.86989700  -0.13100000   0.00000000  -0.25650000
C     1.20980100  -0.00000000  -3.27231400  -0.13800000  -0.00000000   0.14630000
C     0.00000000  -0.00000000  -3.98609500   0.23100000   0.00000000  -0.00000000
C    -1.21231000  -0.00000000  -1.86989700  -0.13100000  -0.00000000   0.25650000
C    -1.20980100  -0.00000000  -3.27231400  -0.13800000   0.00000000  -0.14630000
O    -0.00000000  -0.00000000   0.19823500  -0.04100000  -0.00000000   0.00000000
SR   -0.00000000  -0.00000000   2.24444600   0.00000000   0.00000000   0.00000000
H     2.15500600  -0.00000000  -1.31239800   0.16000000   0.00000000  -0.42280000
H     2.16358400  -0.00000000  -3.81126600   0.06000000   0.00000000   0.23310000
H     0.00000000  -0.00000000  -5.08028100   0.40000000  -0.00000000  -0.00000000
H    -2.15500600  -0.00000000  -1.31239800   0.16000000   0.00000000   0.42280000
H    -2.16358400   0.00000000  -3.81126600   0.06000000  -0.00000000  -0.23310000
13
XX. Vibration mode, 627.97 cm-1, b2
C    -0.00000000  -0.00000000  -1.14803700   0.15880000   0.00000000  -0.00000000
C     1.21231000  -0.00000000  -1.86989700   0.22690000  -0.00000000   0.33780000
C     1.20980100  -0.00000000  -3.27231400  -0.33600000   0.00000000   0.37540000
C     0.00000000  -0.00000000  -3.98609500  -0.16440000   0.00000000   0.00000000
C    -1.21231000  -0.00000000  -1.86989700   0.22690000  -0.00000000  -0.33780000
C    -1.20980100  -0.00000000  -3.27231400  -0.33600000   0.00000000  -0.37540000
O    -0.00000000  -0.00000000   0.19823500   0.17460000   0.00000000  -0.00000000
SR   -0.00000000  -0.00000000   2.24444600   0.00010000   0.00000000   0.00000000
H     2.15500600  -0.00000000  -1.31239800   0.09300000  -0.00000000   0.04800000
H     2.16358400  -0.00000000  -3.81126600  -0.12310000  -0.00000000   0.06250000
H     0.00000000  -0.00000000  -5.08028100   0.13550000  -0.00000000   0.00000000
H    -2.15500600  -0.00000000  -1.31239800   0.09300000  -0.00000000  -0.04800000
H    -2.16358400   0.00000000  -3.81126600  -0.12310000  -0.00000000  -0.06250000
13
XX. Vibration mode, 449.76 cm-1, b2
C    -0.00000000  -0.00000000  -1.14803700   0.31610000   0.00000000  -0.00000000
C     1.21231000  -0.00000000  -1.86989700   0.33330000  -0.00000000  -0.05610000
C     1.20980100  -0.00000000  -3.27231400  -0.05060000   0.00000000  -0.13560000
C     0.00000000  -0.00000000  -3.98609500  -0.13340000  -0.00000000  -0.00000000
C    -1.21231000  -0.00000000  -1.86989700   0.33330000   0.00000000   0.05610000
C    -1.20980100  -0.00000000  -3.27231400  -0.05060000  -0.00000000   0.13560000
O    -0.00000000  -0.00000000   0.19823500  -0.72080000  -0.00000000  -0.00000000
SR   -0.00000000  -0.00000000   2.24444600   0.01710000   0.00000000  -0.00000000
H     2.15500600  -0.00000000  -1.31239800   0.14680000  -0.00000000  -0.09820000
H     2.16358400  -0.00000000  -3.81126600  -0.04870000   0.00000000  -0.10120000
H     0.00000000  -0.00000000  -5.08028100  -0.06660000   0.00000000  -0.00000000
H    -2.15500600  -0.00000000  -1.31239800   0.14680000   0.00000000   0.09820000
H    -2.16358400   0.00000000  -3.81126600  -0.04870000  -0.00000000   0.10120000
13
XX. Vibration mode, 68.14 cm-1, b2
C    -0.00000000  -0.00000000  -1.14803700   0.31800000   0.00000000  -0.00000000
C     1.21231000  -0.00000000  -1.86989700   0.18300000   0.00000000  -0.22220000
C     1.20980100  -0.00000000  -3.27231400  -0.08700000  -0.00000000  -0.22490000
C     0.00000000  -0.00000000  -3.98609500  -0.21900000   0.00000000  -0.00000000
C    -1.21231000  -0.00000000  -1.86989700   0.18300000   0.00000000   0.22220000
C    -1.20980100  -0.00000000  -3.27231400  -0.08700000   0.00000000   0.22490000
O    -0.00000000  -0.00000000   0.19823500   0.59200000   0.00000000  -0.00000000
SR   -0.00000000  -0.00000000   2.24444600  -0.35300000  -0.00000000  -0.00000000
H     2.15500600  -0.00000000  -1.31239800   0.08400000  -0.00000000  -0.11780000
H     2.16358400  -0.00000000  -3.81126600  -0.05500000  -0.00000000  -0.11850000
H     0.00000000  -0.00000000  -5.08028100  -0.12300000   0.00000000  -0.00000000
H    -2.15500600  -0.00000000  -1.31239800   0.08400000   0.00000000   0.11780000
H    -2.16358400   0.00000000  -3.81126600  -0.05500000   0.00000000   0.11850000
